7L11 - minimized_ligand
                    3D
 Structure written by MMmdl.
 52 55  0  0  1  0            999 V2000
  -21.8080   -4.6745  -25.4607 C   0  0  0  0  0  0
  -23.0932   -4.4563  -25.8186 C   0  0  0  0  0  0
  -24.2497   -4.5377  -24.8756 C   0  0  0  0  0  0
  -24.2528   -4.0400  -23.5492 C   0  0  0  0  0  0
  -23.1626   -3.2384  -23.0046 C   0  0  0  0  0  0
  -25.3631   -4.2461  -22.7224 C   0  0  0  0  0  0
  -19.9255   -4.6146  -28.4585 O   0  0  0  0  0  0
  -20.8782   -4.5177  -27.6782 C   0  0  0  0  0  0
  -19.4549   -4.9840  -25.7874 C   0  0  0  0  0  0
  -18.4432   -4.0148  -25.7659 C   0  0  0  0  0  0
  -16.9125   -5.5246  -24.8854 C   0  0  0  0  0  0
  -17.8611   -6.5483  -24.8706 C   0  0  0  0  0  0
  -19.1547   -6.2691  -25.3163 C   0  0  0  0  0  0
  -21.5819   -4.9663  -33.0199 O   0  0  0  0  0  0
  -26.4830   -4.9212  -23.1952 C   0  0  0  0  0  0
  -26.5159   -5.3702  -24.5103 C   0  0  0  0  0  0
  -25.4118   -5.1786  -25.3367 C   0  0  0  0  0  0
  -23.2856   -4.2046  -27.2414 C   0  0  0  0  0  0
  -22.2569   -4.2263  -28.1322 C   0  0  0  0  0  0
  -22.5264   -3.9028  -29.5661 C   0  0  0  0  0  0
  -23.4323   -2.8881  -29.9061 C   0  0  0  0  0  0
  -23.7300   -2.6069  -31.2362 C   0  0  0  0  0  0
  -23.1117   -3.3280  -32.2533 C   0  0  0  0  0  0
  -22.1883   -4.3285  -31.9558 C   0  0  0  0  0  0
  -20.4072   -5.7380  -32.7774 C   0  0  0  0  0  0
  -19.7711   -6.1610  -34.1089 C   0  0  0  0  0  0
  -19.3252   -4.9723  -34.9705 C   0  0  0  0  0  0
  -21.9269   -4.6245  -30.6100 C   0  0  0  0  0  0
  -20.7278   -4.6873  -26.3170 N   0  0  0  0  0  0
  -17.1892   -4.2684  -25.3139 N   0  0  0  0  0  0
  -22.2945   -2.6113  -22.5702 N   0  0  0  0  0  0
  -24.8644   -1.3662  -31.6186 Cl  0  0  0  0  0  0
  -21.5200   -4.9023  -24.4429 H   0  0  0  0  0  0
  -25.3716   -3.8804  -21.7061 H   0  0  0  0  0  0
  -18.6256   -3.0159  -26.1369 H   0  0  0  0  0  0
  -15.9035   -5.7053  -24.5462 H   0  0  0  0  0  0
  -17.5999   -7.5362  -24.5188 H   0  0  0  0  0  0
  -19.9037   -7.0477  -25.3196 H   0  0  0  0  0  0
  -27.3359   -5.0738  -22.5491 H   0  0  0  0  0  0
  -27.3921   -5.8786  -24.8848 H   0  0  0  0  0  0
  -25.4603   -5.5697  -26.3416 H   0  0  0  0  0  0
  -24.2822   -3.9661  -27.5860 H   0  0  0  0  0  0
  -23.9148   -2.3058  -29.1339 H   0  0  0  0  0  0
  -23.3262   -3.0893  -33.2814 H   0  0  0  0  0  0
  -20.6589   -6.6278  -32.1982 H   0  0  0  0  0  0
  -19.6847   -5.1596  -32.1982 H   0  0  0  0  0  0
  -20.4721   -6.7768  -34.6741 H   0  0  0  0  0  0
  -18.9063   -6.7935  -33.9029 H   0  0  0  0  0  0
  -18.8131   -5.3137  -35.8700 H   0  0  0  0  0  0
  -20.1806   -4.3705  -35.2782 H   0  0  0  0  0  0
  -18.6421   -4.3228  -34.4233 H   0  0  0  0  0  0
  -21.2528   -5.4307  -30.3671 H   0  0  0  0  0  0
  1  2  2  0  0  0
  1 29  1  0  0  0
  1 33  1  0  0  0
  2  3  1  0  0  0
  2 18  1  0  0  0
  3  4  1  0  0  0
  3 17  2  0  0  0
  4  5  1  0  0  0
  4  6  2  0  0  0
  5 31  3  0  0  0
  6 15  1  0  0  0
  6 34  1  0  0  0
  7  8  2  0  0  0
  8 19  1  0  0  0
  8 29  1  0  0  0
  9 10  1  0  0  0
  9 13  2  0  0  0
  9 29  1  0  0  0
 10 30  2  0  0  0
 10 35  1  0  0  0
 11 12  2  0  0  0
 11 30  1  0  0  0
 11 36  1  0  0  0
 12 13  1  0  0  0
 12 37  1  0  0  0
 13 38  1  0  0  0
 14 24  1  0  0  0
 14 25  1  0  0  0
 15 16  2  0  0  0
 15 39  1  0  0  0
 16 17  1  0  0  0
 16 40  1  0  0  0
 17 41  1  0  0  0
 18 19  2  0  0  0
 18 42  1  0  0  0
 19 20  1  0  0  0
 20 21  1  0  0  0
 20 28  2  0  0  0
 21 22  2  0  0  0
 21 43  1  0  0  0
 22 23  1  0  0  0
 22 32  1  0  0  0
 23 24  2  0  0  0
 23 44  1  0  0  0
 24 28  1  0  0  0
 25 26  1  0  0  0
 25 45  1  0  0  0
 25 46  1  0  0  0
 26 27  1  0  0  0
 26 47  1  0  0  0
 26 48  1  0  0  0
 27 49  1  0  0  0
 27 50  1  0  0  0
 27 51  1  0  0  0
 28 52  1  0  0  0
M  END
$$$$
