7L12 - minimized_ligand
                    3D
 Structure written by MMmdl.
 54 58  0  0  1  0            999 V2000
  -20.6466   -4.6472  -27.5170 C   0  0  0  0  0  0
  -22.9766   -4.1198  -26.9060 C   0  0  0  0  0  0
  -22.0337   -4.2766  -27.8773 C   0  0  0  0  0  0
  -22.4047   -4.0139  -29.3021 C   0  0  0  0  0  0
  -23.3090   -2.9906  -29.6245 C   0  0  0  0  0  0
  -19.1175   -5.1209  -25.7191 C   0  0  0  0  0  0
  -23.7213   -2.7815  -30.9369 C   0  0  0  0  0  0
  -23.2108   -3.5753  -31.9586 C   0  0  0  0  0  0
  -22.2878   -4.5816  -31.6846 C   0  0  0  0  0  0
  -20.6127   -6.0654  -32.5908 C   0  0  0  0  0  0
  -20.1837   -6.5979  -33.9452 C   0  0  0  0  0  0
  -21.9141   -4.8081  -30.3524 C   0  0  0  0  0  0
  -18.1756   -4.1149  -25.4823 C   0  0  0  0  0  0
  -16.5354   -5.6777  -24.9654 C   0  0  0  0  0  0
  -17.4184   -6.7401  -25.1658 C   0  0  0  0  0  0
  -18.7319   -6.4552  -25.5434 C   0  0  0  0  0  0
  -21.3988   -4.6280  -25.2251 C   0  0  0  0  0  0
  -22.6841   -4.3064  -25.4891 C   0  0  0  0  0  0
  -23.7176   -4.1750  -24.4532 C   0  0  0  0  0  0
  -25.0050   -4.5314  -24.7093 C   0  0  0  0  0  0
  -23.4540   -3.5961  -23.1243 C   0  0  0  0  0  0
  -25.8146   -4.0283  -22.5872 C   0  0  0  0  0  0
  -19.6210   -5.7286  -34.8816 C   0  0  0  0  0  0
  -19.2540   -6.2074  -36.1358 C   0  0  0  0  0  0
  -19.4634   -7.5485  -36.4523 C   0  0  0  0  0  0
  -20.0226   -8.4195  -35.5216 C   0  0  0  0  0  0
  -20.3716   -7.9456  -34.2604 C   0  0  0  0  0  0
  -20.4078   -4.7931  -26.1659 N   0  0  0  0  0  0
  -16.8972   -4.3776  -25.1097 N   0  0  0  0  0  0
  -24.5463   -3.6007  -22.3009 N   0  0  0  0  0  0
  -26.0712   -4.4710  -23.8104 N   0  5  0  0  0  0
  -19.7579   -4.8119  -28.3598 O   0  0  0  0  0  0
  -21.8061   -5.3037  -32.7575 O   0  0  0  0  0  0
  -22.3819   -3.1199  -22.7518 O   0  0  0  0  0  0
  -26.6087   -3.9557  -21.6532 O   0  0  0  0  0  0
  -24.8702   -1.5477  -31.2961 Cl  0  0  0  0  0  0
  -23.9801   -3.8315  -27.1827 H   0  0  0  0  0  0
  -23.7102   -2.3499  -28.8525 H   0  0  0  0  0  0
  -23.5216   -3.3943  -32.9730 H   0  0  0  0  0  0
  -19.8129   -5.4446  -32.1817 H   0  0  0  0  0  0
  -20.7762   -6.8937  -31.9001 H   0  0  0  0  0  0
  -21.2450   -5.6219  -30.1249 H   0  0  0  0  0  0
  -18.4381   -3.0754  -25.6121 H   0  0  0  0  0  0
  -15.5075   -5.8659  -24.6939 H   0  0  0  0  0  0
  -17.0844   -7.7601  -25.0475 H   0  0  0  0  0  0
  -19.4305   -7.2595  -25.7221 H   0  0  0  0  0  0
  -21.0444   -4.8033  -24.2189 H   0  0  0  0  0  0
  -25.2568   -4.9392  -25.6776 H   0  0  0  0  0  0
  -19.4758   -4.6847  -34.6410 H   0  0  0  0  0  0
  -18.8195   -5.5386  -36.8638 H   0  0  0  0  0  0
  -19.1859   -7.9157  -37.4297 H   0  0  0  0  0  0
  -20.1776   -9.4576  -35.7752 H   0  0  0  0  0  0
  -20.8002   -8.6220  -33.5363 H   0  0  0  0  0  0
  -24.4136   -3.2231  -21.3751 H   0  0  0  0  0  0
  1  3  1  0  0  0
  1 28  1  0  0  0
  1 32  2  0  0  0
  2  3  2  0  0  0
  2 18  1  0  0  0
  2 37  1  0  0  0
  3  4  1  0  0  0
  4  5  1  0  0  0
  4 12  2  0  0  0
  5  7  2  0  0  0
  5 38  1  0  0  0
  6 13  1  0  0  0
  6 16  2  0  0  0
  6 28  1  0  0  0
  7  8  1  0  0  0
  7 36  1  0  0  0
  8  9  2  0  0  0
  8 39  1  0  0  0
  9 12  1  0  0  0
  9 33  1  0  0  0
 10 11  1  0  0  0
 10 33  1  0  0  0
 10 40  1  0  0  0
 10 41  1  0  0  0
 11 23  1  0  0  0
 11 27  2  0  0  0
 12 42  1  0  0  0
 13 29  2  0  0  0
 13 43  1  0  0  0
 14 15  2  0  0  0
 14 29  1  0  0  0
 14 44  1  0  0  0
 15 16  1  0  0  0
 15 45  1  0  0  0
 16 46  1  0  0  0
 17 18  2  0  0  0
 17 28  1  0  0  0
 17 47  1  0  0  0
 18 19  1  0  0  0
 19 20  2  0  0  0
 19 21  1  0  0  0
 20 31  1  0  0  0
 20 48  1  0  0  0
 21 30  1  0  0  0
 21 34  2  0  0  0
 22 30  1  0  0  0
 22 31  1  0  0  0
 22 35  2  0  0  0
 23 24  2  0  0  0
 23 49  1  0  0  0
 24 25  1  0  0  0
 24 50  1  0  0  0
 25 26  2  0  0  0
 25 51  1  0  0  0
 26 27  1  0  0  0
 26 52  1  0  0  0
 27 53  1  0  0  0
 30 54  1  0  0  0
M  CHG  1  31  -1
M  END
$$$$
