7L14 - minimized_ligand
                    3D
 Structure written by MMmdl.
 53 57  0  0  1  0            999 V2000
  -24.2901   -4.5454  -24.9211 C   0  0  0  0  0  0
  -18.4656   -4.1539  -25.8420 C   0  0  0  0  0  0
  -16.9493   -5.6401  -24.8972 C   0  0  0  0  0  0
  -20.7605   -4.8203  -26.3525 N   0  0  0  0  0  0
  -19.4888   -5.1112  -25.8153 C   0  0  0  0  0  0
  -23.3600   -2.8767  -29.9003 C   0  0  0  0  0  0
  -23.6752   -2.5620  -31.2182 C   0  0  0  0  0  0
  -23.1540   -3.3257  -32.2538 C   0  0  0  0  0  0
  -22.3116   -4.4041  -31.9938 C   0  0  0  0  0  0
  -20.7350   -5.9824  -32.9324 C   0  0  0  0  0  0
  -20.3271   -6.4445  -34.3372 C   0  0  0  0  0  0
  -22.0160   -4.7262  -30.6598 C   0  0  0  0  0  0
  -21.8429   -4.7755  -25.4957 C   0  0  0  0  0  0
  -25.4234   -4.1819  -22.7870 C   0  0  0  0  0  0
  -26.5827   -4.7682  -23.2884 C   0  0  0  0  0  0
  -22.5317   -3.9676  -29.5944 C   0  0  0  0  0  0
  -22.2734   -4.3221  -28.1689 C   0  0  0  0  0  0
  -26.6190   -5.2147  -24.6031 C   0  0  0  0  0  0
  -25.4863   -5.1012  -25.4049 C   0  0  0  0  0  0
  -23.3006   -4.2609  -27.2791 C   0  0  0  0  0  0
  -20.9083   -4.6694  -27.7184 C   0  0  0  0  0  0
  -24.2834   -4.0547  -23.5894 C   0  0  0  0  0  0
  -23.1490   -3.3512  -23.0077 C   0  0  0  0  0  0
  -19.4199   -5.5466  -35.1393 C   0  0  0  0  0  0
  -18.8962   -6.8565  -34.5851 C   0  0  0  0  0  0
  -17.9116   -6.6492  -24.8273 C   0  0  0  0  0  0
  -19.2027   -6.3758  -25.2824 C   0  0  0  0  0  0
  -23.1212   -4.5184  -25.8559 C   0  0  0  0  0  0
  -17.2130   -4.4011  -25.3836 N   0  0  0  0  0  0
  -22.2466   -2.7933  -22.5485 N   0  0  0  0  0  0
  -19.9679   -4.8186  -28.5054 O   0  0  0  0  0  0
  -21.8292   -5.0855  -33.0914 O   0  0  0  0  0  0
  -24.7148   -1.2332  -31.5671 Cl  0  0  0  0  0  0
  -18.6393   -3.1696  -26.2544 H   0  0  0  0  0  0
  -15.9388   -5.8199  -24.5612 H   0  0  0  0  0  0
  -23.7738   -2.2671  -29.1098 H   0  0  0  0  0  0
  -23.3823   -3.0592  -33.2711 H   0  0  0  0  0  0
  -19.9041   -5.4858  -32.4249 H   0  0  0  0  0  0
  -21.0315   -6.8437  -32.3330 H   0  0  0  0  0  0
  -21.1138   -6.9845  -34.8660 H   0  0  0  0  0  0
  -21.3961   -5.5820  -30.4412 H   0  0  0  0  0  0
  -21.5606   -5.0067  -24.4766 H   0  0  0  0  0  0
  -25.4318   -3.8145  -21.7688 H   0  0  0  0  0  0
  -27.4610   -4.8597  -22.6651 H   0  0  0  0  0  0
  -27.5226   -5.6528  -25.0015 H   0  0  0  0  0  0
  -25.5451   -5.4820  -26.4146 H   0  0  0  0  0  0
  -24.2825   -3.9733  -27.6254 H   0  0  0  0  0  0
  -19.0716   -4.6103  -34.6992 H   0  0  0  0  0  0
  -19.6184   -5.4610  -36.2056 H   0  0  0  0  0  0
  -18.7002   -7.6740  -35.2806 H   0  0  0  0  0  0
  -18.1909   -6.8364  -33.7547 H   0  0  0  0  0  0
  -17.6596   -7.6222  -24.4307 H   0  0  0  0  0  0
  -19.9612   -7.1449  -25.2443 H   0  0  0  0  0  0
  1 19  1  0  0  0
  1 22  2  0  0  0
  1 28  1  0  0  0
  2  5  1  0  0  0
  2 29  2  0  0  0
  2 34  1  0  0  0
  3 26  2  0  0  0
  3 29  1  0  0  0
  3 35  1  0  0  0
  4  5  1  0  0  0
  4 13  1  0  0  0
  4 21  1  0  0  0
  5 27  2  0  0  0
  6  7  1  0  0  0
  6 16  2  0  0  0
  6 36  1  0  0  0
  7  8  2  0  0  0
  7 33  1  0  0  0
  8  9  1  0  0  0
  8 37  1  0  0  0
  9 12  2  0  0  0
  9 32  1  0  0  0
 10 11  1  0  0  0
 10 32  1  0  0  0
 10 38  1  0  0  0
 10 39  1  0  0  0
 11 24  1  0  0  0
 11 25  1  0  0  0
 11 40  1  0  0  0
 12 16  1  0  0  0
 12 41  1  0  0  0
 13 28  2  0  0  0
 13 42  1  0  0  0
 14 15  2  0  0  0
 14 22  1  0  0  0
 14 43  1  0  0  0
 15 18  1  0  0  0
 15 44  1  0  0  0
 16 17  1  0  0  0
 17 20  2  0  0  0
 17 21  1  0  0  0
 18 19  2  0  0  0
 18 45  1  0  0  0
 19 46  1  0  0  0
 20 28  1  0  0  0
 20 47  1  0  0  0
 21 31  2  0  0  0
 22 23  1  0  0  0
 23 30  3  0  0  0
 24 25  1  0  0  0
 24 48  1  0  0  0
 24 49  1  0  0  0
 25 50  1  0  0  0
 25 51  1  0  0  0
 26 27  1  0  0  0
 26 52  1  0  0  0
 27 53  1  0  0  0
M  END
$$$$
