7M8X - minimized_ligand
                    3D
 Structure written by MMmdl.
 53 56  0  0  1  0            999 V2000
  -19.6818   -6.2812  -33.9588 C   0  0  0  0  0  0
  -20.3713   -5.8925  -32.6403 C   0  0  0  0  0  0
  -22.1162   -4.4364  -31.8167 C   0  0  0  0  0  0
  -19.6342   -4.3027  -35.3077 C   0  0  0  0  0  0
  -21.8524   -4.7317  -30.4704 C   0  0  0  0  0  0
  -23.0340   -3.4290  -32.1124 C   0  0  0  0  0  0
  -23.1120   -3.4140  -22.8344 C   0  0  0  0  0  0
  -24.2034   -4.1844  -23.4157 C   0  0  0  0  0  0
  -20.8038   -4.6331  -27.5338 C   0  0  0  0  0  0
  -25.3281   -4.3890  -22.6095 C   0  0  0  0  0  0
  -26.4511   -5.0431  -23.1081 C   0  0  0  0  0  0
  -26.4698   -5.4764  -24.4277 C   0  0  0  0  0  0
  -25.3525   -5.2858  -25.2340 C   0  0  0  0  0  0
  -23.2063   -4.3102  -27.1018 C   0  0  0  0  0  0
  -22.1778   -4.3336  -27.9913 C   0  0  0  0  0  0
  -22.4440   -4.0053  -29.4250 C   0  0  0  0  0  0
  -23.3387   -2.9799  -29.7642 C   0  0  0  0  0  0
  -19.3798   -5.0732  -25.6379 C   0  0  0  0  0  0
  -23.6387   -2.6989  -31.0933 C   0  0  0  0  0  0
  -18.3719   -4.0994  -25.6480 C   0  0  0  0  0  0
  -16.8318   -5.5738  -24.7231 C   0  0  0  0  0  0
  -17.7754   -6.6000  -24.6728 C   0  0  0  0  0  0
  -19.0691   -6.3416  -25.1296 C   0  0  0  0  0  0
  -21.7394   -4.7981  -25.3186 C   0  0  0  0  0  0
  -23.0227   -4.5754  -25.6800 C   0  0  0  0  0  0
  -24.1881   -4.6638  -24.7490 C   0  0  0  0  0  0
  -20.6555   -4.7984  -26.1715 N   0  0  0  0  0  0
  -17.1147   -4.3335  -25.1933 N   0  0  0  0  0  0
  -22.2455   -2.8029  -22.3766 N   0  0  0  0  0  0
  -19.8528   -4.7375  -28.3136 O   0  0  0  0  0  0
  -21.5199   -5.0805  -32.8836 O   0  0  0  0  0  0
  -18.9113   -5.2059  -34.4847 O   0  0  0  0  0  0
  -24.7499   -1.4380  -31.4730 Cl  0  0  0  0  0  0
  -20.3993   -6.6672  -34.6858 H   0  0  0  0  0  0
  -18.9876   -7.0979  -33.7586 H   0  0  0  0  0  0
  -19.6542   -5.3614  -32.0111 H   0  0  0  0  0  0
  -20.6678   -6.7955  -32.1056 H   0  0  0  0  0  0
  -18.9808   -3.4851  -35.6088 H   0  0  0  0  0  0
  -19.9893   -4.7940  -36.2118 H   0  0  0  0  0  0
  -20.4915   -3.8671  -34.7983 H   0  0  0  0  0  0
  -21.1837   -5.5424  -30.2292 H   0  0  0  0  0  0
  -23.2526   -3.1924  -33.1421 H   0  0  0  0  0  0
  -25.3512   -4.0346  -21.5868 H   0  0  0  0  0  0
  -27.3159   -5.1949  -22.4771 H   0  0  0  0  0  0
  -27.3439   -5.9702  -24.8214 H   0  0  0  0  0  0
  -25.3901   -5.6635  -26.2448 H   0  0  0  0  0  0
  -24.1979   -4.0567  -27.4446 H   0  0  0  0  0  0
  -23.8083   -2.3883  -28.9916 H   0  0  0  0  0  0
  -18.5623   -3.1132  -26.0461 H   0  0  0  0  0  0
  -15.8202   -5.7422  -24.3845 H   0  0  0  0  0  0
  -17.5101   -7.5747  -24.2921 H   0  0  0  0  0  0
  -19.8122   -7.1254  -25.1149 H   0  0  0  0  0  0
  -21.4551   -5.0347  -24.3025 H   0  0  0  0  0  0
  1  2  1  0  0  0
  1 32  1  0  0  0
  1 34  1  0  0  0
  1 35  1  0  0  0
  2 31  1  0  0  0
  2 36  1  0  0  0
  2 37  1  0  0  0
  3  5  1  0  0  0
  3  6  2  0  0  0
  3 31  1  0  0  0
  4 32  1  0  0  0
  4 38  1  0  0  0
  4 39  1  0  0  0
  4 40  1  0  0  0
  5 16  2  0  0  0
  5 41  1  0  0  0
  6 19  1  0  0  0
  6 42  1  0  0  0
  7  8  1  0  0  0
  7 29  3  0  0  0
  8 10  1  0  0  0
  8 26  2  0  0  0
  9 15  1  0  0  0
  9 27  1  0  0  0
  9 30  2  0  0  0
 10 11  2  0  0  0
 10 43  1  0  0  0
 11 12  1  0  0  0
 11 44  1  0  0  0
 12 13  2  0  0  0
 12 45  1  0  0  0
 13 26  1  0  0  0
 13 46  1  0  0  0
 14 15  2  0  0  0
 14 25  1  0  0  0
 14 47  1  0  0  0
 15 16  1  0  0  0
 16 17  1  0  0  0
 17 19  2  0  0  0
 17 48  1  0  0  0
 18 20  1  0  0  0
 18 23  2  0  0  0
 18 27  1  0  0  0
 19 33  1  0  0  0
 20 28  2  0  0  0
 20 49  1  0  0  0
 21 22  2  0  0  0
 21 28  1  0  0  0
 21 50  1  0  0  0
 22 23  1  0  0  0
 22 51  1  0  0  0
 23 52  1  0  0  0
 24 25  2  0  0  0
 24 27  1  0  0  0
 24 53  1  0  0  0
 25 26  1  0  0  0
M  END
$$$$
