7M8Y - minimized_ligand
                    3D
 Structure written by MMmdl.
 57 61  0  0  1  0            999 V2000
  -20.7308   -4.7745  -27.5773 C   0  0  0  0  0  0
  -22.1339   -4.4603  -27.9283 C   0  0  0  0  0  0
  -22.4898   -4.1723  -29.3499 C   0  0  0  0  0  0
  -23.2880   -3.0624  -29.6678 C   0  0  0  0  0  0
  -23.5802   -2.7447  -30.9937 C   0  0  0  0  0  0
  -23.0789   -3.5320  -32.0280 C   0  0  0  0  0  0
  -19.8594   -4.9712  -28.4319 O   0  0  0  0  0  0
  -21.7166   -5.4140  -32.7222 O   0  0  0  0  0  0
  -22.2876   -4.6467  -31.7352 C   0  0  0  0  0  0
  -20.8716   -4.7093  -33.6330 C   0  0  0  0  0  0
  -19.5924   -5.5104  -33.9158 C   0  0  0  0  0  0
  -22.5219   -3.1724  -22.8448 O   0  0  0  0  0  0
  -26.6698   -4.2646  -21.6651 O   0  0  0  0  0  0
  -19.8603   -6.8782  -34.5232 C   0  0  0  0  0  0
  -19.8679   -7.0302  -35.9112 C   0  0  0  0  0  0
  -20.1344   -8.2764  -36.4728 C   0  0  0  0  0  0
  -20.3910   -9.3656  -35.6431 C   0  0  0  0  0  0
  -20.3692   -9.2227  -34.2564 C   0  0  0  0  0  0
  -20.1029   -7.9762  -33.6948 C   0  0  0  0  0  0
  -22.0312   -4.9773  -30.4055 C   0  0  0  0  0  0
  -23.0769   -4.3291  -26.9543 C   0  0  0  0  0  0
  -22.7602   -4.4748  -25.5348 C   0  0  0  0  0  0
  -23.7887   -4.3907  -24.4884 C   0  0  0  0  0  0
  -23.5603   -3.7395  -23.1859 C   0  0  0  0  0  0
  -25.0464   -4.8620  -24.7116 C   0  0  0  0  0  0
  -25.8777   -4.3284  -22.6027 C   0  0  0  0  0  0
  -21.4513   -4.7004  -25.2770 C   0  0  0  0  0  0
  -19.1367   -5.0194  -25.7885 C   0  0  0  0  0  0
  -18.6542   -6.3071  -25.5240 C   0  0  0  0  0  0
  -17.3165   -6.4719  -25.1578 C   0  0  0  0  0  0
  -16.5084   -5.3386  -25.0511 C   0  0  0  0  0  0
  -18.2595   -3.9347  -25.6551 C   0  0  0  0  0  0
  -24.6432   -3.7916  -22.3509 N   0  0  0  0  0  0
  -26.1055   -4.8508  -23.8013 N   0  5  0  0  0  0
  -20.4595   -4.8208  -26.2253 N   0  0  0  0  0  0
  -16.9602   -4.0804  -25.2891 N   0  0  0  0  0  0
  -24.5346   -1.3558  -31.3539 Cl  0  0  0  0  0  0
  -23.6608   -2.4172  -28.8845 H   0  0  0  0  0  0
  -23.2860   -3.2690  -33.0542 H   0  0  0  0  0  0
  -20.5732   -3.7384  -33.2371 H   0  0  0  0  0  0
  -21.4057   -4.5087  -34.5589 H   0  0  0  0  0  0
  -19.0227   -5.6252  -32.9942 H   0  0  0  0  0  0
  -18.9446   -4.9404  -34.5831 H   0  0  0  0  0  0
  -19.6654   -6.1831  -36.5494 H   0  0  0  0  0  0
  -20.1415   -8.3990  -37.5461 H   0  0  0  0  0  0
  -20.5996  -10.3320  -36.0789 H   0  0  0  0  0  0
  -20.5623  -10.0731  -33.6193 H   0  0  0  0  0  0
  -20.0932   -7.8614  -32.6198 H   0  0  0  0  0  0
  -21.4247   -5.8482  -30.2025 H   0  0  0  0  0  0
  -24.0872   -4.0600  -27.2291 H   0  0  0  0  0  0
  -25.2707   -5.3259  -25.6617 H   0  0  0  0  0  0
  -21.0759   -4.8267  -24.2703 H   0  0  0  0  0  0
  -19.2968   -7.1699  -25.6251 H   0  0  0  0  0  0
  -16.9101   -7.4554  -24.9714 H   0  0  0  0  0  0
  -15.4651   -5.4368  -24.7908 H   0  0  0  0  0  0
  -18.5827   -2.9254  -25.8641 H   0  0  0  0  0  0
  -24.5339   -3.3619  -21.4444 H   0  0  0  0  0  0
  1  2  1  0  0  0
  1  7  2  0  0  0
  1 35  1  0  0  0
  2  3  1  0  0  0
  2 21  2  0  0  0
  3  4  1  0  0  0
  3 20  2  0  0  0
  4  5  2  0  0  0
  4 38  1  0  0  0
  5  6  1  0  0  0
  5 37  1  0  0  0
  6  9  2  0  0  0
  6 39  1  0  0  0
  8  9  1  0  0  0
  8 10  1  0  0  0
  9 20  1  0  0  0
 10 11  1  0  0  0
 10 40  1  0  0  0
 10 41  1  0  0  0
 11 14  1  0  0  0
 11 42  1  0  0  0
 11 43  1  0  0  0
 12 24  2  0  0  0
 13 26  2  0  0  0
 14 15  1  0  0  0
 14 19  2  0  0  0
 15 16  2  0  0  0
 15 44  1  0  0  0
 16 17  1  0  0  0
 16 45  1  0  0  0
 17 18  2  0  0  0
 17 46  1  0  0  0
 18 19  1  0  0  0
 18 47  1  0  0  0
 19 48  1  0  0  0
 20 49  1  0  0  0
 21 22  1  0  0  0
 21 50  1  0  0  0
 22 23  1  0  0  0
 22 27  2  0  0  0
 23 24  1  0  0  0
 23 25  2  0  0  0
 24 33  1  0  0  0
 25 34  1  0  0  0
 25 51  1  0  0  0
 26 33  1  0  0  0
 26 34  1  0  0  0
 27 35  1  0  0  0
 27 52  1  0  0  0
 28 29  1  0  0  0
 28 32  2  0  0  0
 28 35  1  0  0  0
 29 30  2  0  0  0
 29 53  1  0  0  0
 30 31  1  0  0  0
 30 54  1  0  0  0
 31 36  2  0  0  0
 31 55  1  0  0  0
 32 36  1  0  0  0
 32 56  1  0  0  0
 33 57  1  0  0  0
M  CHG  1  34  -1
M  END
$$$$
